 xtb: 6.7.1 (edcfbbe)
          02062520123D

322221  0     0  0            999 V2000
   -1.0661   -0.4816    0.7731 N   0  0  0  0  0  0  0  0  0  0  0  0
    0.1995   -1.1869    0.6023 C   0  0  0  0  0  0  0  0  0  0  0  0
    1.1902    0.2678   -1.2633 C   0  0  0  0  0  0  0  0  0  0  0  0
    0.5071    0.7619   -2.1808 O   0  0  0  0  0  0  0  0  0  0  0  0
    0.9014   -1.1156   -0.7528 C   0  0  0  0  0  0  0  0  0  0  0  0
    2.1754    0.9618   -0.7355 N   0  0  0  0  0  0  0  0  0  0  0  0
    3.1711    0.5346    0.2128 C   0  0  0  0  0  0  0  0  0  0  0  0
   -2.1661   -0.4584    0.0076 C   0  0  0  0  0  0  0  0  0  0  0  0
   -3.2452   -0.1537    0.5483 O   0  0  0  0  0  0  0  0  0  0  0  0
   -2.0978   -0.7197   -1.4507 C   0  0  0  0  0  0  0  0  0  0  0  0
   -1.2986   -0.3797    1.7681 H   0  0  0  0  0  0  0  0  0  0  0  0
    0.8523   -0.7750    1.3715 H   0  0  0  0  0  0  0  0  0  0  0  0
    0.3509   -1.6747   -1.5005 H   0  0  0  0  0  0  0  0  0  0  0  0
    0.0403   -2.2441    0.8283 H   0  0  0  0  0  0  0  0  0  0  0  0
    1.8467   -1.6377   -0.6270 H   0  0  0  0  0  0  0  0  0  0  0  0
    2.3448    1.8794   -1.1459 H   0  0  0  0  0  0  0  0  0  0  0  0
    3.0732    1.1126    1.1290 H   0  0  0  0  0  0  0  0  0  0  0  0
    4.1565    0.7002   -0.2165 H   0  0  0  0  0  0  0  0  0  0  0  0
    3.0640   -0.5151    0.4431 H   0  0  0  0  0  0  0  0  0  0  0  0
   -1.3412   -0.0827   -1.8946 H   0  0  0  0  0  0  0  0  0  0  0  0
   -3.0601   -0.4987   -1.9022 H   0  0  0  0  0  0  0  0  0  0  0  0
   -1.8298   -1.7539   -1.6429 H   0  0  0  0  0  0  0  0  0  0  0  0
   -0.1767    3.2908   -2.3129 O   0  0  0  0  0  0  0  0  0  0  0  0
    0.2228    2.4059   -2.1875 H   0  0  0  0  0  0  0  0  0  0  0  0
   -1.1509    3.1318   -2.2509 H   0  0  0  0  0  0  0  0  0  0  0  0
   -0.1380    2.2893    1.2794 O   0  0  0  0  0  0  0  0  0  0  0  0
   -0.6202    1.5219    0.9623 H   0  0  0  0  0  0  0  0  0  0  0  0
   -0.7979    2.8623    1.7594 H   0  0  0  0  0  0  0  0  0  0  0  0
    3.8215   -2.3169   -1.2075 O   0  0  0  0  0  0  0  0  0  0  0  0
    4.6340   -1.8132   -1.4206 H   0  0  0  0  0  0  0  0  0  0  0  0
    3.2723   -2.3259   -2.0166 H   0  0  0  0  0  0  0  0  0  0  0  0
   -0.4601   -0.7417   -4.2705 O   0  0  0  0  0  0  0  0  0  0  0  0
   -1.2936   -0.2617   -4.4030 H   0  0  0  0  0  0  0  0  0  0  0  0
    0.0511   -0.2059   -3.6382 H   0  0  0  0  0  0  0  0  0  0  0  0
   -3.3773   -3.6218   -3.2207 O   0  0  0  0  0  0  0  0  0  0  0  0
   -3.7108   -4.5196   -3.3545 H   0  0  0  0  0  0  0  0  0  0  0  0
   -3.0031   -3.6156   -2.3198 H   0  0  0  0  0  0  0  0  0  0  0  0
   -2.7640    2.8085   -2.2074 O   0  0  0  0  0  0  0  0  0  0  0  0
   -3.0477    3.3471   -2.9924 H   0  0  0  0  0  0  0  0  0  0  0  0
   -2.9389    3.3668   -1.4227 H   0  0  0  0  0  0  0  0  0  0  0  0
   -2.2442   -0.6827    3.3473 O   0  0  0  0  0  0  0  0  0  0  0  0
   -2.7511    0.1453    3.2043 H   0  0  0  0  0  0  0  0  0  0  0  0
   -2.8860   -1.3470    3.6728 H   0  0  0  0  0  0  0  0  0  0  0  0
   -0.3446   -3.1032   -2.9654 O   0  0  0  0  0  0  0  0  0  0  0  0
   -0.7520   -3.8994   -3.3319 H   0  0  0  0  0  0  0  0  0  0  0  0
   -0.5711   -2.3510   -3.5429 H   0  0  0  0  0  0  0  0  0  0  0  0
    2.0837    2.0459    2.8194 O   0  0  0  0  0  0  0  0  0  0  0  0
    1.3141    2.1549    2.2301 H   0  0  0  0  0  0  0  0  0  0  0  0
    1.9047    1.1981    3.2652 H   0  0  0  0  0  0  0  0  0  0  0  0
    0.5555    0.1306    3.9699 O   0  0  0  0  0  0  0  0  0  0  0  0
    0.6159    0.0398    4.9443 H   0  0  0  0  0  0  0  0  0  0  0  0
    0.4623   -0.7741    3.6450 H   0  0  0  0  0  0  0  0  0  0  0  0
   -4.7106    2.0440    1.0826 O   0  0  0  0  0  0  0  0  0  0  0  0
   -4.3060    1.2734    0.6601 H   0  0  0  0  0  0  0  0  0  0  0  0
   -4.2894    2.0399    1.9723 H   0  0  0  0  0  0  0  0  0  0  0  0
   -3.3808    4.1343    0.0006 O   0  0  0  0  0  0  0  0  0  0  0  0
   -3.6354    5.0616    0.1938 H   0  0  0  0  0  0  0  0  0  0  0  0
   -4.0630    3.5509    0.3860 H   0  0  0  0  0  0  0  0  0  0  0  0
    5.5119   -0.2563    2.1228 O   0  0  0  0  0  0  0  0  0  0  0  0
    5.7978    0.6589    1.8970 H   0  0  0  0  0  0  0  0  0  0  0  0
    5.7621   -0.8528    1.3969 H   0  0  0  0  0  0  0  0  0  0  0  0
   -1.8735   -3.2310    1.8733 O   0  0  0  0  0  0  0  0  0  0  0  0
   -1.9248   -2.3902    2.3418 H   0  0  0  0  0  0  0  0  0  0  0  0
   -2.3612   -3.1653    1.0374 H   0  0  0  0  0  0  0  0  0  0  0  0
    3.0209   -0.7410    3.0281 O   0  0  0  0  0  0  0  0  0  0  0  0
    3.8942   -0.4696    2.6918 H   0  0  0  0  0  0  0  0  0  0  0  0
    2.9539   -1.6715    2.7961 H   0  0  0  0  0  0  0  0  0  0  0  0
   -5.4534   -1.5398    0.2213 O   0  0  0  0  0  0  0  0  0  0  0  0
   -4.6499   -0.9743    0.3199 H   0  0  0  0  0  0  0  0  0  0  0  0
   -5.5171   -1.7928   -0.7303 H   0  0  0  0  0  0  0  0  0  0  0  0
   -0.7326   -6.4377   -0.9872 O   0  0  0  0  0  0  0  0  0  0  0  0
    0.0473   -7.0177   -1.1711 H   0  0  0  0  0  0  0  0  0  0  0  0
   -0.5121   -5.9583   -0.1688 H   0  0  0  0  0  0  0  0  0  0  0  0
    3.6364    3.0633   -2.0995 O   0  0  0  0  0  0  0  0  0  0  0  0
    3.3697    3.4596   -2.9578 H   0  0  0  0  0  0  0  0  0  0  0  0
    3.9702    2.1812   -2.3327 H   0  0  0  0  0  0  0  0  0  0  0  0
    3.8698   -2.9313    1.4051 O   0  0  0  0  0  0  0  0  0  0  0  0
    3.6652   -2.7766    0.4638 H   0  0  0  0  0  0  0  0  0  0  0  0
    4.8358   -2.9500    1.4241 H   0  0  0  0  0  0  0  0  0  0  0  0
    4.2100    3.3293    0.5000 O   0  0  0  0  0  0  0  0  0  0  0  0
    4.1285    3.2656   -0.4665 H   0  0  0  0  0  0  0  0  0  0  0  0
    4.9556    2.7740    0.7615 H   0  0  0  0  0  0  0  0  0  0  0  0
   -1.0629    2.2733    4.3952 O   0  0  0  0  0  0  0  0  0  0  0  0
   -0.4514    3.0208    4.5159 H   0  0  0  0  0  0  0  0  0  0  0  0
   -0.5114    1.5338    4.0778 H   0  0  0  0  0  0  0  0  0  0  0  0
   -0.1285   -5.1368    1.3046 O   0  0  0  0  0  0  0  0  0  0  0  0
   -0.6761   -4.3599    1.5419 H   0  0  0  0  0  0  0  0  0  0  0  0
    0.7318   -5.0237    1.7299 H   0  0  0  0  0  0  0  0  0  0  0  0
   -2.5760    0.9583   -4.3319 O   0  0  0  0  0  0  0  0  0  0  0  0
   -3.4064    1.1052   -4.7998 H   0  0  0  0  0  0  0  0  0  0  0  0
   -2.6982    1.3604   -3.4588 H   0  0  0  0  0  0  0  0  0  0  0  0
   -3.1637   -3.4956   -0.4995 O   0  0  0  0  0  0  0  0  0  0  0  0
   -3.5566   -4.3380   -0.1688 H   0  0  0  0  0  0  0  0  0  0  0  0
   -3.8763   -2.8486   -0.4648 H   0  0  0  0  0  0  0  0  0  0  0  0
    6.1664   -1.1483   -1.7488 O   0  0  0  0  0  0  0  0  0  0  0  0
    6.1611   -0.1958   -1.4865 H   0  0  0  0  0  0  0  0  0  0  0  0
    6.1978   -1.1936   -2.7096 H   0  0  0  0  0  0  0  0  0  0  0  0
   -6.1751    4.3457    0.7735 O   0  0  0  0  0  0  0  0  0  0  0  0
   -7.0479    3.9462    0.9052 H   0  0  0  0  0  0  0  0  0  0  0  0
   -5.7171    4.4069    1.6393 H   0  0  0  0  0  0  0  0  0  0  0  0
   -5.6587    3.0143   -1.5606 O   0  0  0  0  0  0  0  0  0  0  0  0
   -4.7868    2.6026   -1.5547 H   0  0  0  0  0  0  0  0  0  0  0  0
   -5.8175    3.4018   -0.6804 H   0  0  0  0  0  0  0  0  0  0  0  0
   -5.8959   -1.2472    5.1642 O   0  0  0  0  0  0  0  0  0  0  0  0
   -5.1114   -1.7981    5.0093 H   0  0  0  0  0  0  0  0  0  0  0  0
   -6.3494   -1.1735    4.3078 H   0  0  0  0  0  0  0  0  0  0  0  0
   -5.0321    0.4106   -2.6032 O   0  0  0  0  0  0  0  0  0  0  0  0
   -5.7575    0.7263   -2.0423 H   0  0  0  0  0  0  0  0  0  0  0  0
   -5.0876    0.9358   -3.4261 H   0  0  0  0  0  0  0  0  0  0  0  0
    2.2832   -4.6177    2.6164 O   0  0  0  0  0  0  0  0  0  0  0  0
    2.6896   -4.8796    3.4438 H   0  0  0  0  0  0  0  0  0  0  0  0
    2.9256   -4.0281    2.1446 H   0  0  0  0  0  0  0  0  0  0  0  0
   -5.4698   -2.1634   -2.3493 O   0  0  0  0  0  0  0  0  0  0  0  0
   -5.3802   -1.2160   -2.6126 H   0  0  0  0  0  0  0  0  0  0  0  0
   -4.7128   -2.6055   -2.7821 H   0  0  0  0  0  0  0  0  0  0  0  0
    2.0402    1.2454   -4.8592 O   0  0  0  0  0  0  0  0  0  0  0  0
    2.1864    0.4630   -5.4178 H   0  0  0  0  0  0  0  0  0  0  0  0
    1.1171    1.5453   -4.9860 H   0  0  0  0  0  0  0  0  0  0  0  0
    1.6449    4.1115    0.4738 O   0  0  0  0  0  0  0  0  0  0  0  0
    0.9526    3.4369    0.5663 H   0  0  0  0  0  0  0  0  0  0  0  0
    2.4970    3.6825    0.6521 H   0  0  0  0  0  0  0  0  0  0  0  0
    0.5254   -2.6336    3.5115 O   0  0  0  0  0  0  0  0  0  0  0  0
    1.0758   -3.3404    3.1447 H   0  0  0  0  0  0  0  0  0  0  0  0
   -0.2844   -3.0704    3.8564 H   0  0  0  0  0  0  0  0  0  0  0  0
   -0.6729    5.7636   -0.8186 O   0  0  0  0  0  0  0  0  0  0  0  0
    0.1664    6.2159   -0.9894 H   0  0  0  0  0  0  0  0  0  0  0  0
   -0.5601    4.8728   -1.1714 H   0  0  0  0  0  0  0  0  0  0  0  0
   -0.3651    2.4456   -4.9496 O   0  0  0  0  0  0  0  0  0  0  0  0
   -0.2599    2.7978   -4.0453 H   0  0  0  0  0  0  0  0  0  0  0  0
   -1.1849    1.9210   -4.9213 H   0  0  0  0  0  0  0  0  0  0  0  0
    6.5073   -2.3266    0.6690 O   0  0  0  0  0  0  0  0  0  0  0  0
    7.4247   -2.3551    0.9485 H   0  0  0  0  0  0  0  0  0  0  0  0
    6.5006   -2.0821   -0.2745 H   0  0  0  0  0  0  0  0  0  0  0  0
    4.7599    5.5533    1.9071 O   0  0  0  0  0  0  0  0  0  0  0  0
    4.2392    6.3380    1.6956 H   0  0  0  0  0  0  0  0  0  0  0  0
    4.4502    4.8476    1.3082 H   0  0  0  0  0  0  0  0  0  0  0  0
    4.4873    3.3414    3.6280 O   0  0  0  0  0  0  0  0  0  0  0  0
    3.6756    2.9097    3.3260 H   0  0  0  0  0  0  0  0  0  0  0  0
    4.5064    4.2284    3.2384 H   0  0  0  0  0  0  0  0  0  0  0  0
    2.3099   -2.4787   -3.4571 O   0  0  0  0  0  0  0  0  0  0  0  0
    2.8298   -3.2705   -3.6926 H   0  0  0  0  0  0  0  0  0  0  0  0
    1.4108   -2.7825   -3.2340 H   0  0  0  0  0  0  0  0  0  0  0  0
    3.3783    0.1493    5.5595 O   0  0  0  0  0  0  0  0  0  0  0  0
    3.1348   -0.1167    4.6485 H   0  0  0  0  0  0  0  0  0  0  0  0
    3.1366   -0.6005    6.1109 H   0  0  0  0  0  0  0  0  0  0  0  0
   -3.7554   -2.6841    4.2107 O   0  0  0  0  0  0  0  0  0  0  0  0
   -4.1692   -3.1403    3.4602 H   0  0  0  0  0  0  0  0  0  0  0  0
   -2.9868   -3.2246    4.4863 H   0  0  0  0  0  0  0  0  0  0  0  0
   -1.3060   -5.7033   -3.4730 O   0  0  0  0  0  0  0  0  0  0  0  0
   -1.1087   -5.9138   -2.5322 H   0  0  0  0  0  0  0  0  0  0  0  0
   -2.2014   -6.0346   -3.6136 H   0  0  0  0  0  0  0  0  0  0  0  0
    1.5434   -4.3062   -1.2553 O   0  0  0  0  0  0  0  0  0  0  0  0
    0.6128   -4.0957   -1.1552 H   0  0  0  0  0  0  0  0  0  0  0  0
    1.6085   -4.7675   -2.1172 H   0  0  0  0  0  0  0  0  0  0  0  0
   -2.1032    0.3958    5.9887 O   0  0  0  0  0  0  0  0  0  0  0  0
   -2.0742   -0.2012    5.2216 H   0  0  0  0  0  0  0  0  0  0  0  0
   -1.7902    1.2479    5.6199 H   0  0  0  0  0  0  0  0  0  0  0  0
    6.1776    1.2891   -0.7211 O   0  0  0  0  0  0  0  0  0  0  0  0
    6.9824    1.2532   -0.1762 H   0  0  0  0  0  0  0  0  0  0  0  0
    6.2967    2.0903   -1.2728 H   0  0  0  0  0  0  0  0  0  0  0  0
   -1.9700    3.8855    2.2262 O   0  0  0  0  0  0  0  0  0  0  0  0
   -2.4227    3.8934    1.3536 H   0  0  0  0  0  0  0  0  0  0  0  0
   -1.6130    4.7991    2.2852 H   0  0  0  0  0  0  0  0  0  0  0  0
   -1.9374   -3.8569   -5.6231 O   0  0  0  0  0  0  0  0  0  0  0  0
   -1.5686   -4.6951   -5.3323 H   0  0  0  0  0  0  0  0  0  0  0  0
   -2.4987   -3.5503   -4.8955 H   0  0  0  0  0  0  0  0  0  0  0  0
    1.0980    3.8894    4.5287 O   0  0  0  0  0  0  0  0  0  0  0  0
    1.1638    4.7429    4.0782 H   0  0  0  0  0  0  0  0  0  0  0  0
    1.5601    3.2560    3.9416 H   0  0  0  0  0  0  0  0  0  0  0  0
    5.9858   -0.0396    4.8329 O   0  0  0  0  0  0  0  0  0  0  0  0
    5.1483    0.1979    5.2703 H   0  0  0  0  0  0  0  0  0  0  0  0
    5.7477   -0.1785    3.9034 H   0  0  0  0  0  0  0  0  0  0  0  0
   -3.4513    4.1657   -4.3318 O   0  0  0  0  0  0  0  0  0  0  0  0
   -2.6801    4.6467   -4.6968 H   0  0  0  0  0  0  0  0  0  0  0  0
   -4.0834    4.8258   -3.9849 H   0  0  0  0  0  0  0  0  0  0  0  0
   -8.3609    2.8898    0.0678 O   0  0  0  0  0  0  0  0  0  0  0  0
   -7.9314    2.1329   -0.3602 H   0  0  0  0  0  0  0  0  0  0  0  0
   -8.4662    3.5563   -0.6310 H   0  0  0  0  0  0  0  0  0  0  0  0
    6.3684    3.6872   -1.9175 O   0  0  0  0  0  0  0  0  0  0  0  0
    6.7054    4.1214   -1.1037 H   0  0  0  0  0  0  0  0  0  0  0  0
    5.4306    3.9165   -1.9810 H   0  0  0  0  0  0  0  0  0  0  0  0
    4.1114    0.6198   -3.1998 O   0  0  0  0  0  0  0  0  0  0  0  0
    3.3002    0.7695   -3.7179 H   0  0  0  0  0  0  0  0  0  0  0  0
    4.4465   -0.2411   -3.4988 H   0  0  0  0  0  0  0  0  0  0  0  0
   -3.4754    1.6920    3.3598 O   0  0  0  0  0  0  0  0  0  0  0  0
   -4.0022    1.5465    4.1811 H   0  0  0  0  0  0  0  0  0  0  0  0
   -2.6650    2.1735    3.6114 H   0  0  0  0  0  0  0  0  0  0  0  0
   -4.7231    1.0885    5.6145 O   0  0  0  0  0  0  0  0  0  0  0  0
   -3.9060    0.8466    6.0815 H   0  0  0  0  0  0  0  0  0  0  0  0
   -5.2446    0.2542    5.5323 H   0  0  0  0  0  0  0  0  0  0  0  0
    1.5370   -7.6416   -1.5922 O   0  0  0  0  0  0  0  0  0  0  0  0
    2.1379   -7.2868   -0.9134 H   0  0  0  0  0  0  0  0  0  0  0  0
    1.7462   -7.1634   -2.4056 H   0  0  0  0  0  0  0  0  0  0  0  0
    6.3500    2.2718    2.1327 O   0  0  0  0  0  0  0  0  0  0  0  0
    5.7158    2.6425    2.8037 H   0  0  0  0  0  0  0  0  0  0  0  0
    7.1814    2.1225    2.5935 H   0  0  0  0  0  0  0  0  0  0  0  0
   -3.2441   -7.3771   -1.0505 O   0  0  0  0  0  0  0  0  0  0  0  0
   -3.6976   -6.9120   -0.3339 H   0  0  0  0  0  0  0  0  0  0  0  0
   -2.2942   -7.1480   -0.9663 H   0  0  0  0  0  0  0  0  0  0  0  0
   -4.5678   -5.5059    0.4932 O   0  0  0  0  0  0  0  0  0  0  0  0
   -4.8971   -5.0024    1.2567 H   0  0  0  0  0  0  0  0  0  0  0  0
   -5.2523   -5.3997   -0.2029 H   0  0  0  0  0  0  0  0  0  0  0  0
    3.2095    3.6866   -4.6423 O   0  0  0  0  0  0  0  0  0  0  0  0
    2.7407    2.8622   -4.8739 H   0  0  0  0  0  0  0  0  0  0  0  0
    4.1526    3.4884   -4.8113 H   0  0  0  0  0  0  0  0  0  0  0  0
    0.1842   -2.3261   -6.3556 O   0  0  0  0  0  0  0  0  0  0  0  0
    0.0035   -1.6724   -5.6524 H   0  0  0  0  0  0  0  0  0  0  0  0
   -0.6287   -2.8592   -6.3837 H   0  0  0  0  0  0  0  0  0  0  0  0
    1.3847    5.8284    2.5363 O   0  0  0  0  0  0  0  0  0  0  0  0
    1.4516    5.1800    1.8031 H   0  0  0  0  0  0  0  0  0  0  0  0
    1.9663    6.5524    2.2703 H   0  0  0  0  0  0  0  0  0  0  0  0
   -4.6446    4.5944    2.9563 O   0  0  0  0  0  0  0  0  0  0  0  0
   -5.1845    4.1527    3.6523 H   0  0  0  0  0  0  0  0  0  0  0  0
   -3.7669    4.1807    2.9686 H   0  0  0  0  0  0  0  0  0  0  0  0
   -6.2173    3.1447    4.5164 O   0  0  0  0  0  0  0  0  0  0  0  0
   -6.6582    2.6112    3.8346 H   0  0  0  0  0  0  0  0  0  0  0  0
   -5.7545    2.5146    5.0882 H   0  0  0  0  0  0  0  0  0  0  0  0
   -7.1776    0.4869   -0.8355 O   0  0  0  0  0  0  0  0  0  0  0  0
   -7.8590    0.0169   -1.3176 H   0  0  0  0  0  0  0  0  0  0  0  0
   -6.7155   -0.1537   -0.2735 H   0  0  0  0  0  0  0  0  0  0  0  0
   -1.1549    6.3535    1.7633 O   0  0  0  0  0  0  0  0  0  0  0  0
   -0.2676    6.3419    2.1686 H   0  0  0  0  0  0  0  0  0  0  0  0
   -1.0136    6.1797    0.8076 H   0  0  0  0  0  0  0  0  0  0  0  0
    4.2427   -4.3375   -3.9346 O   0  0  0  0  0  0  0  0  0  0  0  0
    4.5369   -4.5835   -3.0188 H   0  0  0  0  0  0  0  0  0  0  0  0
    4.1358   -5.1618   -4.4096 H   0  0  0  0  0  0  0  0  0  0  0  0
   -5.4060    5.3533   -3.0012 O   0  0  0  0  0  0  0  0  0  0  0  0
   -5.5766    4.4929   -2.5762 H   0  0  0  0  0  0  0  0  0  0  0  0
   -5.5199    6.0049   -2.2913 H   0  0  0  0  0  0  0  0  0  0  0  0
    2.7035   -1.2232   -5.8114 O   0  0  0  0  0  0  0  0  0  0  0  0
    2.4970   -1.6102   -4.9304 H   0  0  0  0  0  0  0  0  0  0  0  0
    1.9773   -1.4846   -6.3868 H   0  0  0  0  0  0  0  0  0  0  0  0
   -1.9825   -6.2026    3.0246 O   0  0  0  0  0  0  0  0  0  0  0  0
   -2.8106   -6.1348    2.5491 H   0  0  0  0  0  0  0  0  0  0  0  0
   -1.2826   -6.0270    2.3724 H   0  0  0  0  0  0  0  0  0  0  0  0
    1.9875   -4.2585   -5.8507 O   0  0  0  0  0  0  0  0  0  0  0  0
    2.8169   -3.8693   -6.1309 H   0  0  0  0  0  0  0  0  0  0  0  0
    1.2940   -3.5910   -6.0477 H   0  0  0  0  0  0  0  0  0  0  0  0
    0.4664   -0.0789    6.6678 O   0  0  0  0  0  0  0  0  0  0  0  0
   -0.4976    0.0584    6.7071 H   0  0  0  0  0  0  0  0  0  0  0  0
    0.8941    0.7893    6.8405 H   0  0  0  0  0  0  0  0  0  0  0  0
   -4.1080   -6.3022   -3.2323 O   0  0  0  0  0  0  0  0  0  0  0  0
   -4.5116   -6.9834   -3.7697 H   0  0  0  0  0  0  0  0  0  0  0  0
   -3.8007   -6.7555   -2.3849 H   0  0  0  0  0  0  0  0  0  0  0  0
   -6.0390   -4.8871   -1.6634 O   0  0  0  0  0  0  0  0  0  0  0  0
   -5.5328   -5.3477   -2.3485 H   0  0  0  0  0  0  0  0  0  0  0  0
   -6.0751   -3.9564   -1.9185 H   0  0  0  0  0  0  0  0  0  0  0  0
   -5.3974   -3.5097    2.1361 O   0  0  0  0  0  0  0  0  0  0  0  0
   -6.1946   -3.3414    2.6456 H   0  0  0  0  0  0  0  0  0  0  0  0
   -5.3909   -2.8229    1.4399 H   0  0  0  0  0  0  0  0  0  0  0  0
    8.5021    1.1157    0.6876 O   0  0  0  0  0  0  0  0  0  0  0  0
    8.5285    0.3707    1.3268 H   0  0  0  0  0  0  0  0  0  0  0  0
    9.3844    1.4745    0.6255 H   0  0  0  0  0  0  0  0  0  0  0  0
    8.1349    1.3821    4.2684 O   0  0  0  0  0  0  0  0  0  0  0  0
    8.7019    1.4070    5.0399 H   0  0  0  0  0  0  0  0  0  0  0  0
    7.2880    0.9762    4.5761 H   0  0  0  0  0  0  0  0  0  0  0  0
   -7.0973    1.7020    2.2929 O   0  0  0  0  0  0  0  0  0  0  0  0
   -7.8171    2.0360    1.7466 H   0  0  0  0  0  0  0  0  0  0  0  0
   -6.2728    1.8322    1.7743 H   0  0  0  0  0  0  0  0  0  0  0  0
   -1.4858   -4.0475    4.6154 O   0  0  0  0  0  0  0  0  0  0  0  0
   -0.9748   -4.2752    5.4183 H   0  0  0  0  0  0  0  0  0  0  0  0
   -1.6479   -4.8803    4.1292 H   0  0  0  0  0  0  0  0  0  0  0  0
    2.9283   -6.0538    0.1548 O   0  0  0  0  0  0  0  0  0  0  0  0
    2.7811   -5.9595    1.0999 H   0  0  0  0  0  0  0  0  0  0  0  0
    2.3896   -5.3437   -0.2691 H   0  0  0  0  0  0  0  0  0  0  0  0
    4.8778   -4.8102   -1.4293 O   0  0  0  0  0  0  0  0  0  0  0  0
    4.3552   -5.4289   -0.8981 H   0  0  0  0  0  0  0  0  0  0  0  0
    4.5443   -3.9194   -1.1989 H   0  0  0  0  0  0  0  0  0  0  0  0
    2.0410    6.2564   -1.1673 O   0  0  0  0  0  0  0  0  0  0  0  0
    1.9122    6.0551   -2.1138 H   0  0  0  0  0  0  0  0  0  0  0  0
    1.9879    5.4021   -0.7013 H   0  0  0  0  0  0  0  0  0  0  0  0
   -6.1197    6.5901   -0.6778 O   0  0  0  0  0  0  0  0  0  0  0  0
   -5.4148    7.1208   -0.2958 H   0  0  0  0  0  0  0  0  0  0  0  0
   -6.1540    5.8026   -0.0935 H   0  0  0  0  0  0  0  0  0  0  0  0
    5.1218   -1.6824   -4.3562 O   0  0  0  0  0  0  0  0  0  0  0  0
    4.9457   -2.6180   -4.1742 H   0  0  0  0  0  0  0  0  0  0  0  0
    4.5996   -1.4623   -5.1380 H   0  0  0  0  0  0  0  0  0  0  0  0
    2.9764    7.5439    1.0167 O   0  0  0  0  0  0  0  0  0  0  0  0
    2.9453    8.4929    0.9294 H   0  0  0  0  0  0  0  0  0  0  0  0
    2.6769    7.1709    0.1642 H   0  0  0  0  0  0  0  0  0  0  0  0
   -5.1479    2.0253   -4.7832 O   0  0  0  0  0  0  0  0  0  0  0  0
   -6.0683    2.2777   -4.5937 H   0  0  0  0  0  0  0  0  0  0  0  0
   -4.6278    2.8465   -4.7310 H   0  0  0  0  0  0  0  0  0  0  0  0
    1.4824   -5.6592   -3.6120 O   0  0  0  0  0  0  0  0  0  0  0  0
    0.5338   -5.8194   -3.7158 H   0  0  0  0  0  0  0  0  0  0  0  0
    1.7488   -5.1957   -4.4301 H   0  0  0  0  0  0  0  0  0  0  0  0
    7.0174    4.5157    0.5631 O   0  0  0  0  0  0  0  0  0  0  0  0
    6.4286    5.1170    1.0441 H   0  0  0  0  0  0  0  0  0  0  0  0
    6.9730    3.6793    1.0544 H   0  0  0  0  0  0  0  0  0  0  0  0
    1.8221    2.2043    6.6785 O   0  0  0  0  0  0  0  0  0  0  0  0
    2.5719    1.7297    6.2881 H   0  0  0  0  0  0  0  0  0  0  0  0
    1.5763    2.9007    6.0522 H   0  0  0  0  0  0  0  0  0  0  0  0
    1.2335    5.2907   -3.5677 O   0  0  0  0  0  0  0  0  0  0  0  0
    0.7646    4.5667   -3.1146 H   0  0  0  0  0  0  0  0  0  0  0  0
    1.9318    4.8749   -4.0955 H   0  0  0  0  0  0  0  0  0  0  0  0
   -7.5140    2.6407   -3.5035 O   0  0  0  0  0  0  0  0  0  0  0  0
   -7.9846    3.4784   -3.4972 H   0  0  0  0  0  0  0  0  0  0  0  0
   -6.9388    2.6827   -2.7199 H   0  0  0  0  0  0  0  0  0  0  0  0
   -3.8882    6.5350    1.1147 O   0  0  0  0  0  0  0  0  0  0  0  0
   -4.2612    6.1004    1.8975 H   0  0  0  0  0  0  0  0  0  0  0  0
   -2.9779    6.7564    1.3537 H   0  0  0  0  0  0  0  0  0  0  0  0
   -8.3253    4.9896   -1.7843 O   0  0  0  0  0  0  0  0  0  0  0  0
   -7.5470    5.5421   -1.6240 H   0  0  0  0  0  0  0  0  0  0  0  0
   -9.0836    5.5705   -1.7155 H   0  0  0  0  0  0  0  0  0  0  0  0
    1.7526   -2.3347    5.9343 O   0  0  0  0  0  0  0  0  0  0  0  0
    1.4096   -2.3621    5.0183 H   0  0  0  0  0  0  0  0  0  0  0  0
    1.2922   -1.5817    6.3466 H   0  0  0  0  0  0  0  0  0  0  0  0
   -6.9340   -0.9735    2.6174 O   0  0  0  0  0  0  0  0  0  0  0  0
   -6.4235   -1.1110    1.8110 H   0  0  0  0  0  0  0  0  0  0  0  0
   -7.1186   -0.0142    2.6314 H   0  0  0  0  0  0  0  0  0  0  0  0
    8.3229   -0.7606    2.5861 O   0  0  0  0  0  0  0  0  0  0  0  0
    7.3645   -0.8804    2.6284 H   0  0  0  0  0  0  0  0  0  0  0  0
    8.5109   -0.1056    3.2815 H   0  0  0  0  0  0  0  0  0  0  0  0
    0.1838   -4.3683    6.6945 O   0  0  0  0  0  0  0  0  0  0  0  0
    0.8556   -3.6780    6.4819 H   0  0  0  0  0  0  0  0  0  0  0  0
   -0.1262   -4.1818    7.5807 H   0  0  0  0  0  0  0  0  0  0  0  0
   -1.0950    5.1214   -5.2303 O   0  0  0  0  0  0  0  0  0  0  0  0
   -0.7773    4.2344   -5.4622 H   0  0  0  0  0  0  0  0  0  0  0  0
   -0.3993    5.5041   -4.6766 H   0  0  0  0  0  0  0  0  0  0  0  0
    5.6645    2.5613   -4.4684 O   0  0  0  0  0  0  0  0  0  0  0  0
    6.2021    2.9795   -3.7855 H   0  0  0  0  0  0  0  0  0  0  0  0
    5.2581    1.7768   -4.0583 H   0  0  0  0  0  0  0  0  0  0  0  0
  1  2  1  0  0  0  0
  3  4  4  0  0  0  0
  2  5  1  0  0  0  0
  3  5  1  0  0  0  0
  3  6  4  0  0  0  0
  6  7  1  0  0  0  0
  1  8  4  0  0  0  0
  8  9  2  0  0  0  0
  8 10  1  0  0  0  0
  1 11  1  0  0  0  0
  2 12  1  0  0  0  0
  5 13  1  0  0  0  0
  2 14  1  0  0  0  0
  5 15  1  0  0  0  0
  6 16  1  0  0  0  0
  7 17  1  0  0  0  0
  7 18  1  0  0  0  0
  7 19  1  0  0  0  0
 10 20  1  0  0  0  0
 10 21  1  0  0  0  0
 10 22  1  0  0  0  0
 23 24  1  0  0  0  0
 23 25  1  0  0  0  0
 26 27  1  0  0  0  0
 26 28  1  0  0  0  0
 29 30  1  0  0  0  0
 29 31  1  0  0  0  0
 32 33  1  0  0  0  0
 32 34  1  0  0  0  0
 35 36  1  0  0  0  0
 35 37  1  0  0  0  0
 38 39  1  0  0  0  0
 38 40  1  0  0  0  0
 41 42  1  0  0  0  0
 41 43  1  0  0  0  0
 44 45  1  0  0  0  0
 44 46  1  0  0  0  0
 47 48  1  0  0  0  0
 47 49  1  0  0  0  0
 50 51  1  0  0  0  0
 50 52  1  0  0  0  0
 53 54  1  0  0  0  0
 53 55  1  0  0  0  0
 56 57  1  0  0  0  0
 56 58  1  0  0  0  0
 59 60  1  0  0  0  0
 59 61  1  0  0  0  0
 62 63  1  0  0  0  0
 62 64  1  0  0  0  0
 65 66  1  0  0  0  0
 65 67  1  0  0  0  0
 68 69  1  0  0  0  0
 68 70  1  0  0  0  0
 71 72  1  0  0  0  0
 71 73  1  0  0  0  0
 74 75  1  0  0  0  0
 74 76  1  0  0  0  0
 77 78  1  0  0  0  0
 77 79  1  0  0  0  0
 80 81  1  0  0  0  0
 80 82  1  0  0  0  0
 83 84  1  0  0  0  0
 83 85  1  0  0  0  0
 86 87  1  0  0  0  0
 86 88  1  0  0  0  0
 89 90  1  0  0  0  0
 89 91  1  0  0  0  0
 92 93  1  0  0  0  0
 92 94  1  0  0  0  0
 95 96  1  0  0  0  0
 95 97  1  0  0  0  0
 98 99  1  0  0  0  0
 98100  1  0  0  0  0
101102  1  0  0  0  0
101103  1  0  0  0  0
104105  1  0  0  0  0
104106  1  0  0  0  0
107108  1  0  0  0  0
107109  1  0  0  0  0
110111  1  0  0  0  0
110112  1  0  0  0  0
113114  1  0  0  0  0
113115  1  0  0  0  0
116117  1  0  0  0  0
116118  1  0  0  0  0
119120  1  0  0  0  0
119121  1  0  0  0  0
122123  1  0  0  0  0
122124  1  0  0  0  0
125126  1  0  0  0  0
125127  1  0  0  0  0
128129  1  0  0  0  0
128130  1  0  0  0  0
131132  1  0  0  0  0
131133  1  0  0  0  0
134135  1  0  0  0  0
134136  1  0  0  0  0
137138  1  0  0  0  0
137139  1  0  0  0  0
140141  1  0  0  0  0
140142  1  0  0  0  0
143144  1  0  0  0  0
143145  1  0  0  0  0
146147  1  0  0  0  0
146148  1  0  0  0  0
149150  1  0  0  0  0
149151  1  0  0  0  0
152153  1  0  0  0  0
152154  1  0  0  0  0
155156  1  0  0  0  0
155157  1  0  0  0  0
158159  1  0  0  0  0
158160  1  0  0  0  0
161162  1  0  0  0  0
161163  1  0  0  0  0
164165  1  0  0  0  0
164166  1  0  0  0  0
167168  1  0  0  0  0
167169  1  0  0  0  0
170171  1  0  0  0  0
170172  1  0  0  0  0
173174  1  0  0  0  0
173175  1  0  0  0  0
176177  1  0  0  0  0
176178  1  0  0  0  0
179180  1  0  0  0  0
179181  1  0  0  0  0
182183  1  0  0  0  0
182184  1  0  0  0  0
185186  1  0  0  0  0
185187  1  0  0  0  0
188189  1  0  0  0  0
188190  1  0  0  0  0
191192  1  0  0  0  0
191193  1  0  0  0  0
194195  1  0  0  0  0
194196  1  0  0  0  0
197198  1  0  0  0  0
197199  1  0  0  0  0
200201  1  0  0  0  0
200202  1  0  0  0  0
203204  1  0  0  0  0
203205  1  0  0  0  0
206207  1  0  0  0  0
206208  1  0  0  0  0
209210  1  0  0  0  0
209211  1  0  0  0  0
212213  1  0  0  0  0
212214  1  0  0  0  0
215216  1  0  0  0  0
215217  1  0  0  0  0
218219  1  0  0  0  0
218220  1  0  0  0  0
221222  1  0  0  0  0
221223  1  0  0  0  0
224225  1  0  0  0  0
224226  1  0  0  0  0
227228  1  0  0  0  0
227229  1  0  0  0  0
230231  1  0  0  0  0
230232  1  0  0  0  0
233234  1  0  0  0  0
233235  1  0  0  0  0
236237  1  0  0  0  0
236238  1  0  0  0  0
239240  1  0  0  0  0
239241  1  0  0  0  0
242243  1  0  0  0  0
242244  1  0  0  0  0
245246  1  0  0  0  0
245247  1  0  0  0  0
248249  1  0  0  0  0
248250  1  0  0  0  0
251252  1  0  0  0  0
251253  1  0  0  0  0
254255  1  0  0  0  0
254256  1  0  0  0  0
257258  1  0  0  0  0
257259  1  0  0  0  0
260261  1  0  0  0  0
260262  1  0  0  0  0
263264  1  0  0  0  0
263265  1  0  0  0  0
266267  1  0  0  0  0
266268  1  0  0  0  0
269270  1  0  0  0  0
269271  1  0  0  0  0
272273  1  0  0  0  0
272274  1  0  0  0  0
275276  1  0  0  0  0
275277  1  0  0  0  0
278279  1  0  0  0  0
278280  1  0  0  0  0
281282  1  0  0  0  0
281283  1  0  0  0  0
284285  1  0  0  0  0
284286  1  0  0  0  0
287288  1  0  0  0  0
287289  1  0  0  0  0
290291  1  0  0  0  0
290292  1  0  0  0  0
293294  1  0  0  0  0
293295  1  0  0  0  0
296297  1  0  0  0  0
296298  1  0  0  0  0
299300  1  0  0  0  0
299301  1  0  0  0  0
302303  1  0  0  0  0
302304  1  0  0  0  0
305306  1  0  0  0  0
305307  1  0  0  0  0
308309  1  0  0  0  0
308310  1  0  0  0  0
311312  1  0  0  0  0
311313  1  0  0  0  0
314315  1  0  0  0  0
314316  1  0  0  0  0
317318  1  0  0  0  0
317319  1  0  0  0  0
320321  1  0  0  0  0
320322  1  0  0  0  0
M  END
