47
Coordinates from ORCA-job /home/esp/scriptDevelopment/drFrankenstein/11_PCY_CHARMM/04_torsion_scanning/torsion_NH1-CT1-CG321-CG2R61/scans_PCY_conformer_26/PCY_conformer_26_forwards/orca_scan
  H           0.85986517451727     -1.35910483277311      3.83984363520423
  H           1.64362019766702      0.05864708852065      1.02116224500257
  H          -1.39890347700788     -1.19805203819036      0.95653606171256
  H          -4.19117936772013      1.74542029788400     -1.32870012603641
  H          -0.68267478464077     -1.72797357857067      3.07312177844435
  H          -3.01557126720481     -0.15576451513879     -0.51641172739306
  H          -0.51661285520602      2.60369402057810      2.69347767288430
  H          -4.40912023530042      3.04945023018578     -0.14595893113894
  H           2.94031718058436     -3.28411322543305     -1.30204909675912
  H          -2.15861992364825      3.66590017949393      1.18514167076766
  H           1.82814449417863     -4.80372803342462      0.30985708991613
  H          -2.34621997326354      5.26244141366019     -2.10583717048165
  H           2.85424324562803     -0.83677891702326     -0.91315291595064
  N          -2.94171244498865      4.80331428823738     -1.40683918612770
  C          -2.96259063276365      3.46305441934177     -1.61986478014521
  C          -2.10847200623121      3.07712634985436     -2.73484178302191
  C          -3.67323551289917      2.50032698640960     -0.73565865109100
  O          -1.54740629110327      3.96049813412033     -3.41547090182356
  C          -2.68759866146861      1.83686798904655      0.20512612119182
  C          -2.46055255797170      0.47035968515005      0.16698755310669
  C          -1.54726498843179     -0.13179862520852      1.01783763790428
  C          -0.83840524288813      0.64182865410819      1.92730619606769
  C          -1.06643017725427      2.01821236554785      1.97428466624959
  C          -1.97803122620146      2.60386611340029      1.12379682386564
  O           0.09612750558441      0.16849737147460      2.80659320077510
  C           0.28047377367525     -1.22551452501896      2.92009214520068
  C           1.03287641308334     -1.83797461882651      1.76622737783129
  C           1.67923477739993     -1.00709608827812      0.85842555694142
  C           2.36166858858691     -1.51319490331183     -0.23342283150756
  C           2.41370044084166     -2.88334579982065     -0.45183721279321
  C           1.79478144452266     -3.73296414537140      0.43756850159309
  C           1.11220941161745     -3.22481792544887      1.54822188569926
  N           0.52719383960156     -4.16980551858559      2.42496760519188
  O           0.45127483534371     -5.34259192411639      2.05807171918787
  O           0.11749652327188     -3.80480110245902      3.52726578345765
  C          -1.12358680069305      1.25613739259162     -4.04398586215649
  N          -1.97439284250394      1.76295409385897     -2.99626943969401
  H          -2.38009772576517      1.09239074873316     -2.36382512424023
  H          -0.29525404229499      0.68652643904721     -3.62172236519917
  H          -1.69588575291005      0.61603997965211     -4.71503803014908
  H          -0.73226223859401      2.10675084197526     -4.59910085618915
  C          -3.59428632793492      5.59848147809221     -0.49935110140030
  O          -4.34342995761344      5.16134491034477      0.36479995204258
  C          -3.28152007699961      7.05647781266323     -0.67686980036059
  H          -2.21344360223657      7.22538942788568     -0.56378889018680
  H          -3.57927007918151      7.38298944259318     -1.67018854388353
  H          -3.82018677318287      7.63243216254865      0.06947244749089
