47
Coordinates from ORCA-job /home/esp/scriptDevelopment/drFrankenstein/11_PCY_CHARMM/04_torsion_scanning/torsion_NH1-CT1-CG321-CG2R61/scans_PCY_conformer_34/PCY_conformer_34_backwards/orca_scan_XTB
  H          -2.10331744932765     -0.22922021121846      4.70300135886537
  H          -3.08406352867642     -2.66895673242529      2.65823527861439
  H           0.02816099411304      2.69551927489554      2.30297382813960
  H           0.68875236348584      2.22088179291433     -2.38281277458244
  H          -3.02819827075424     -0.38033812831923      3.18543271502508
  H           0.45463632715982      3.27661751711613     -0.05966276565807
  H          -2.21067110028817     -0.71829509172630      1.05028152859372
  H          -0.49641249094535      1.04954916745315     -2.88628878128983
  H           0.52433776643235     -4.91874385194103      2.25466369341185
  H          -1.79892898180940     -0.13833540459475     -1.27405229859236
  H           1.79691432887609     -3.01670769123018      3.21526617559477
  H          -1.40294996720311      4.26487883912455     -4.44065612209508
  H          -1.93273948148407     -4.74376753467344      2.02899330927563
  N          -0.77691821017739      3.50745630547023     -4.14259429848878
  C          -1.15640266948690      3.04607792292073     -2.91642534738823
  C          -2.34211689056708      3.74314500017910     -2.44556791031528
  C          -0.36796554146865      1.95274027858390     -2.27724626370533
  O          -2.80682499556349      4.67665628478829     -3.13702834291582
  C          -0.66069809664386      1.62045572832568     -0.84176996774197
  C          -0.13926187703081      2.40891517052006      0.18223754119942
  C          -0.37428678552258      2.09468556558938      1.50289239280150
  C          -1.13103694061077      0.97082518678906      1.83947469519943
  C          -1.64126247586966      0.16770136908314      0.82698307462244
  C          -1.40172881644894      0.49694197030171     -0.49731373017281
  O          -1.29981377819049      0.76249790569467      3.17817975190148
  C          -2.02331202354222     -0.37432405468787      3.62145843401693
  C          -1.31934112750241     -1.67501485477047      3.32442365227278
  C          -2.01658946483794     -2.75199788763159      2.79296119523260
  C          -1.36604104188338     -3.91948134891611      2.43062245452521
  C           0.01104937604298     -4.02157160228047      2.55879469151770
  C           0.72682863360331     -2.96616240232936      3.08695673731674
  C           0.06124814344648     -1.81271544189030      3.49462832768858
  N           0.84690635722101     -0.79741552079970      4.11836943052722
  O           0.39530308048623     -0.21917845380606      5.09613621286227
  O           1.97016071007183     -0.59170618732328      3.67279628371838
  C          -4.09499509516748      3.99247317341596     -0.75247272222263
  N          -2.92587191818037      3.34920151249103     -1.29808539286488
  H          -2.50921919152122      2.59684938729772     -0.77094161321845
  H          -4.38575318989756      4.79348246077411     -1.42917122962309
  H          -4.91189509421244      3.27679447873286     -0.66383942393654
  H          -3.87280419602763      4.40783463625074      0.23044595850111
  C           0.24994622206790      3.14547316593582     -4.96949152054277
  O           1.04472565282091      2.25025863419158     -4.70883601439131
  C           0.29545843539567      3.96105270528563     -6.23046830409507
  H           0.41606956733514      5.01373218362508     -5.98907409748664
  H           1.13058546721916      3.63084924900008     -6.84069258017513
  H          -0.63066273493592      3.83838553381361     -6.78568721992154
