91
Coordinates from ORCA-job qmmm_test
  N          -1.67353938943777      1.18289999020556      0.71392842547441
  C          -0.39693425263858      0.62967625719261      0.27617914529698
  C          -0.23345954763401      0.91262518783795     -1.22516067882669
  O           0.82736569788190      1.33287953063053     -1.70320711602817
  C           0.75447980767035      1.25830327425266      1.06008411947121
  C          -0.42123898749562     -0.88463966550800      0.48142373758282
  H          -2.27254573992867      0.57202375396759      1.24908762593616
  H           0.74474722294239      2.33769650580649      0.92982586913032
  H           0.66368476136374      1.01670983680188      2.11467147357236
  H           1.69996443179373      0.88792232898086      0.67564561299966
  H          -1.26628177828631     -1.33178193933203     -0.02824310372790
  H           0.49215508479546     -1.31736480679208      0.08316055360066
  H          -0.47046580280100     -1.11113270258205      1.54214565488311
  C          -1.36046678828623      0.71276507410570     -3.39926039025820
  N          -1.28765285753284      0.58950127144037     -1.96374891014004
  H          -2.11867631213220      0.24889643857481     -1.50365662403121
  H          -0.40768859200129      1.09749463078510     -3.75679895487327
  H          -1.54956026704016     -0.26479585263362     -3.84197444362312
  H          -2.15717056856936      1.40007955916298     -3.68157161363693
  C          -2.03342108846125      2.45751021169894      0.55861719438813
  O          -1.32099246114701      3.28428320007105     -0.03015773082305
  C          -3.38911182642660      2.81346189271606      1.10507051445694
  H          -3.45643525769274      3.89262263199683      1.20857092179722
  H          -4.14935216737737      2.48651768102333      0.39986503102821
  H          -3.56438574578648      2.33449415762500      2.06235445456773
  O          -1.90775666134161      3.91378481685691     -2.51597971246922
  H          -0.99533896619171      3.94658018141883     -2.85660048321304
  H          -1.72935071957518      3.72716343172574     -1.56842087367421
  O          -4.53874199104388      3.52570880272985     -2.97091824420815
  H          -4.70484917792990      4.31897057007253     -3.48521425219238
  H          -3.57273820011327      3.62040315415310     -2.79996541020311
  O           2.71132068718500     -0.46055962624491     -1.86494806771355
  H           2.08944651211079      0.28763969887829     -1.70463075295627
  H           2.84405740937315     -0.35343498162200     -2.82567343921280
  O           1.86492514023285      2.43238745961509     -5.08506259403161
  H           1.49501166839063      2.89376692333212     -4.29898845197172
  H           2.05356071291635      3.17796500649515     -5.65943685458957
  O          -1.54382054869524      1.68672133315495      3.94566874049321
  H          -1.16613069792261      1.71350264841749      4.85517224819691
  H          -1.25908637491809      2.53870096949895      3.60600549452571
  O          -0.53059909402288     -4.62000516710193      3.59367873367146
  H          -0.52071693721704     -5.53150628739174      3.29853721447193
  H          -1.31264785999632     -4.26053100593248      3.11312339831662
  O           0.86763959309458      3.66011097847165     -2.87060975493012
  H           0.99853732993677      4.26184856629175     -2.10602091112176
  H           0.88948318143523      2.79343341388495     -2.40037262137279
  O           2.28714456357291     -0.21600672400671     -4.62829264630115
  H           2.79655855171151     -0.36878761525057     -5.42930062761725
  H           2.06602813518643      0.73967729173849     -4.73563642889544
  O          -2.43141501404307     -0.85336452661749      3.53451311890210
  H          -1.65183072753582     -1.32539898733454      3.89943391510394
  H          -2.15718552797016      0.07431716502823      3.71773706435783
  O           0.69749891356693     -1.96068555786954     -3.11145649658822
  H           1.08076780918185     -1.44267891746510     -3.84340438045759
  H           1.32167159912108     -1.71889840943957     -2.40810550011871
  O          -5.75407470316434      1.47501629740928     -1.67286469240869
  H          -5.26719357840079      2.20794809135226     -2.11538459486275
  H          -6.62072877242067      1.55856670689817     -2.07457889361996
  O           0.69476306464574      4.90686032393165     -0.45410705625739
  H          -0.01566611393316      4.26742923571631     -0.22151626675375
  H           0.60307115852290      5.56991482122311      0.23103380606709
  O          -2.58383533899080     -3.43453395782794      2.30367744811764
  H          -2.91968504250914     -3.37565228291319      1.38090091306293
  H          -2.74837950787820     -2.53566982376580      2.63107382009965
  O           3.40116754955032     -1.63401478923128      0.49421796812377
  H           4.18400234700917     -2.10084064567556      0.19386090891100
  H           3.13255581547853     -1.16635787704949     -0.32794578919730
  O          -0.39768068417011      1.75403805259553      6.39889233767660
  H          -0.24073547261568      0.79760593123785      6.57280792625691
  H          -0.05212232627949      2.15303712736457      7.19970579181100
  O           2.15038374334953     -1.38227156466860      2.89888876821536
  H           2.50372889581542     -1.57288568439164      2.00095649418204
  H           2.86329210307941     -0.85367623586830      3.26338667132385
  O          -1.78388601514502     -2.86320335478645     -2.48247060777062
  H          -1.81235963648847     -3.59912435858068     -3.09735914696395
  H          -0.88708872589732     -2.50113223099410     -2.66241913593060
  O          -3.38474664390989     -2.95220074817942     -0.25034947740520
  H          -3.82069861363859     -2.08099817846395     -0.35382941167577
  H          -2.84156199088627     -2.98513166845945     -1.06472482107647
  O          -4.82865874473523     -0.19488431172116      2.39214052870051
  H          -4.00604685989681     -0.47672277332685      2.84620879679698
  H          -5.49083950905581     -0.33819338671776      3.07232544003796
  O          -4.34364782736979     -0.40230472346458     -0.29315691300765
  H          -4.67163241491424     -0.28454599851219      0.62323185475235
  H          -4.90248945364844      0.23484842486822     -0.79069160567594
  O          -0.06544354379226     -2.03909152446217      4.33804809448445
  H          -0.14123878781389     -3.00089686338079      4.14393471882700
  H           0.73093800356310     -1.81459968607640      3.80159710461443
  O           0.04425886511984     -0.88949836273793      6.80688089082731
  H           0.17909336520116     -1.66150868432598      7.36001233907185
  H          -0.01597480271402     -1.29609313352148      5.91391425119756
