47
Coordinates from ORCA-job /home/esp/scriptDevelopment/drFrankenstein/11_PCY_CHARMM/04_torsion_scanning/torsion_NH1-CT1-CG321-CG2R61/scans_PCY_conformer_21/PCY_conformer_21_backwards/orca_scan_XTB
  H           0.34783247614095     -1.51694593704121      2.61533991606302
  H          -3.03114342044407     -1.42213898221024      1.45028562879900
  H          -2.64797831212049      1.50861872375385      3.60445629090620
  H          -1.98735133947319      4.77984852032125      0.40230113090666
  H          -0.79809726327974     -2.43421013717209      3.59057262511937
  H          -2.53254412402418      3.64486871960623      2.38070894879041
  H           0.03304131097913     -0.24740310421145      0.78187946445101
  H          -0.22298576368411      4.80331763261159      0.53816858426242
  H          -2.58745577746184     -4.30813614971858     -1.66765831280534
  H           0.18040914213248      1.87132039612396     -0.39668779723252
  H          -0.37544719269583     -4.93336296254887     -0.74024786884288
  H          -1.38203691173832      3.05892672911159     -2.94954561034167
  H          -3.92014296639002     -2.55081943526702     -0.53445231145963
  N          -1.71888682091847      3.15168335797664     -1.98557551927517
  C          -0.98076272238158      4.07245957484882     -1.31089207932632
  C           0.01246926445219      4.69091684916188     -2.17826952595643
  C          -1.06612238157216      4.23042972749685      0.16279267543467
  O           0.08841493181516      4.32995995761202     -3.37122223027283
  C          -1.16816270264316      2.91219338439490      0.89889080314224
  C          -1.95983355079570      2.79833573840028      2.03601013673862
  C          -2.03472093597955      1.60756724869481      2.72332436657747
  C          -1.31993041027584      0.49244148146473      2.28647618399446
  C          -0.52648013353450      0.59695750131302      1.15276282896243
  C          -0.44910515245312      1.80384541847528      0.47872156351104
  O          -1.47489048802361     -0.63958884223622      3.04017892791807
  C          -0.71240044567677     -1.77974170122672      2.71644661539724
  C          -1.20710933036886     -2.51596526134790      1.49834493631697
  C          -2.44853958280275     -2.18966008634985      0.96566026183459
  C          -2.94826042990769     -2.82504518235020     -0.15695986278187
  C          -2.20550285268855     -3.81160150592285     -0.79111402671340
  C          -0.97469450222430     -4.16173739295821     -0.28302593524579
  C          -0.47164776978771     -3.53033369289146      0.86000202298315
  N           0.78898814606773     -3.96932321466801      1.32814887996398
  O           1.18396232867797     -3.61653069185244      2.44075436204367
  O           1.46415538680238     -4.70048701509050      0.60146276436907
  C           1.80434892939680      6.33530514258463     -2.45326984428389
  N           0.80944841797120      5.65017740494462     -1.66900036894654
  H           0.69602971158137      5.94550066400145     -0.71354250178035
  H           2.78917847954164      6.20383954075419     -2.00856639928340
  H           1.79699107312189      5.90654783211336     -3.45353392576308
  H           1.57411840441045      7.39782267542472     -2.51374369961702
  C          -2.88226522373473      2.51169754179724     -1.64396703641550
  O          -3.47587241168251      2.72447995544648     -0.60028037808754
  C          -3.32597770890835      1.52636954254270     -2.68648727616455
  H          -4.21070436550029      1.00888112245611     -2.33608407146005
  H          -3.55801498560990      2.04710754875660     -3.61090781200911
  H          -2.53530002430936      0.80962136287385     -2.88266552442096
