47
Coordinates from ORCA-job /home/esp/scriptDevelopment/drFrankenstein/11_PCY_CHARMM/04_torsion_scanning/torsion_NH1-CT1-CG321-CG2R61/scans_PCY_conformer_18/PCY_conformer_18_forwards/orca_scan
  H           2.34700041350549     -2.51989434524921      0.04877011942223
  H           1.44492964610623     -1.94401846082595      3.20001876844585
  H           0.14279098200528     -0.09830446321273      1.73964141918323
  H          -3.73917863534748      2.64222236035909     -0.60240224879514
  H           2.12339148408397     -1.10209603641587      1.10720259730685
  H          -1.48037324511414      1.69458223640822      1.87287486732233
  H          -0.24294641507319     -0.14698800316629     -2.51389209421045
  H          -2.95869225811908      3.26026544512422      0.86649814711614
  H          -2.02037537097397     -4.41878065322806      3.54346439311566
  H          -1.90164389786255      1.68019389051878     -2.37555184604239
  H          -2.09707437157029     -4.62458177609654      1.07098940435960
  H          -2.35442844848619      5.35524373194932     -2.50094115144202
  H          -0.20566637986542     -3.10819573939450      4.59634286939018
  N          -2.86916510085107      4.54931301098246     -2.12804931137314
  C          -2.30505200303707      4.14104608737912     -0.95858477084858
  C          -1.14252008047368      4.93561265318578     -0.60853415198971
  C          -2.79211155714917      2.97338102604002     -0.17358221097358
  O          -0.81709881066177      5.90926323231961     -1.32212239572069
  C          -1.79259791818176      1.83921769800391     -0.24252200289400
  C          -1.20483949941381      1.31775742964960      0.89872278476816
  C          -0.28029142176792      0.28717622675139      0.82741317124099
  C           0.07623761062679     -0.23321440970628     -0.40915892198202
  C          -0.51862927062348      0.28116500261867     -1.56288643540059
  C          -1.43811612289949      1.30241176853317     -1.47670247279443
  O           0.98063167933400     -1.23696353519298     -0.61708935198365
  C           1.60619836128563     -1.85173754662375      0.49852696312288
  C           0.64505730399048     -2.64268500892902      1.35102537070946
  C           0.67712683551659     -2.54385596330317      2.73606946952827
  C          -0.25863837650649     -3.19418961404139      3.52304878677444
  C          -1.27550010137115     -3.93207793519488      2.93578226668803
  C          -1.32828531717373     -4.04735505309536      1.56091249271434
  C          -0.35608847386107     -3.43102962272035      0.77736647723558
  N          -0.41284216273755     -3.66523848104499     -0.63068516544278
  O           0.62654518618975     -3.88427668104293     -1.23216393098737
  O          -1.51674936196347     -3.69224973484887     -1.15834676817143
  C           0.72553736738758      5.28154438347934      0.93970514507264
  N          -0.47425252401025      4.60309791393316      0.51548606967209
  H          -0.70952767066593      3.74230115627841      0.98434885125892
  H           0.85411178064364      6.16034926149587      0.31029853245473
  H           0.63024285594527      5.58831145135214      1.98072318557860
  H           1.59576108016152      4.63237644727328      0.83151880205642
  C          -3.95212701569118      4.10099551677413     -2.83323200745597
  O          -4.64391507609107      3.15002406362894     -2.48535203758214
  C          -4.19542214702838      4.89367543023247     -4.08731242430255
  H          -4.37290953686690      5.93722374028302     -3.83966453313323
  H          -3.32710113321809      4.83586044514446     -4.73932915304565
  H          -5.06242288212527      4.49114145363458     -4.60264556796612
