 xtb: 6.7.1 (edcfbbe)
          07162515503D

 47 49  0     0  0            999 V2000
    2.3470   -2.5199    0.0488 H   0  0  0  0  0  0  0  0  0  0  0  0
    1.4449   -1.9440    3.2000 H   0  0  0  0  0  0  0  0  0  0  0  0
    0.1428   -0.0983    1.7396 H   0  0  0  0  0  0  0  0  0  0  0  0
   -3.7392    2.6422   -0.6024 H   0  0  0  0  0  0  0  0  0  0  0  0
    2.1234   -1.1021    1.1072 H   0  0  0  0  0  0  0  0  0  0  0  0
   -1.4804    1.6946    1.8729 H   0  0  0  0  0  0  0  0  0  0  0  0
   -0.2429   -0.1470   -2.5139 H   0  0  0  0  0  0  0  0  0  0  0  0
   -2.9587    3.2603    0.8665 H   0  0  0  0  0  0  0  0  0  0  0  0
   -2.0204   -4.4188    3.5435 H   0  0  0  0  0  0  0  0  0  0  0  0
   -1.9016    1.6802   -2.3756 H   0  0  0  0  0  0  0  0  0  0  0  0
   -2.0971   -4.6246    1.0710 H   0  0  0  0  0  0  0  0  0  0  0  0
   -2.3544    5.3552   -2.5009 H   0  0  0  0  0  0  0  0  0  0  0  0
   -0.2057   -3.1082    4.5963 H   0  0  0  0  0  0  0  0  0  0  0  0
   -2.8692    4.5493   -2.1280 N   0  0  0  0  0  0  0  0  0  0  0  0
   -2.3051    4.1410   -0.9586 C   0  0  0  0  0  0  0  0  0  0  0  0
   -1.1425    4.9356   -0.6085 C   0  0  0  0  0  0  0  0  0  0  0  0
   -2.7921    2.9734   -0.1736 C   0  0  0  0  0  0  0  0  0  0  0  0
   -0.8171    5.9093   -1.3221 O   0  0  0  0  0  0  0  0  0  0  0  0
   -1.7926    1.8392   -0.2425 C   0  0  0  0  0  0  0  0  0  0  0  0
   -1.2048    1.3178    0.8987 C   0  0  0  0  0  0  0  0  0  0  0  0
   -0.2803    0.2872    0.8274 C   0  0  0  0  0  0  0  0  0  0  0  0
    0.0762   -0.2332   -0.4092 C   0  0  0  0  0  0  0  0  0  0  0  0
   -0.5186    0.2812   -1.5629 C   0  0  0  0  0  0  0  0  0  0  0  0
   -1.4381    1.3024   -1.4767 C   0  0  0  0  0  0  0  0  0  0  0  0
    0.9806   -1.2370   -0.6171 O   0  0  0  0  0  0  0  0  0  0  0  0
    1.6062   -1.8517    0.4985 C   0  0  0  0  0  0  0  0  0  0  0  0
    0.6451   -2.6427    1.3510 C   0  0  0  0  0  0  0  0  0  0  0  0
    0.6771   -2.5439    2.7361 C   0  0  0  0  0  0  0  0  0  0  0  0
   -0.2586   -3.1942    3.5230 C   0  0  0  0  0  0  0  0  0  0  0  0
   -1.2755   -3.9321    2.9358 C   0  0  0  0  0  0  0  0  0  0  0  0
   -1.3283   -4.0474    1.5609 C   0  0  0  0  0  0  0  0  0  0  0  0
   -0.3561   -3.4310    0.7774 C   0  0  0  0  0  0  0  0  0  0  0  0
   -0.4128   -3.6652   -0.6307 N   0  0  0  0  0  0  0  0  0  0  0  0
    0.6265   -3.8843   -1.2322 O   0  0  0  0  0  0  0  0  0  0  0  0
   -1.5167   -3.6922   -1.1583 O   0  0  0  0  0  0  0  0  0  0  0  0
    0.7255    5.2815    0.9397 C   0  0  0  0  0  0  0  0  0  0  0  0
   -0.4743    4.6031    0.5155 N   0  0  0  0  0  0  0  0  0  0  0  0
   -0.7095    3.7423    0.9843 H   0  0  0  0  0  0  0  0  0  0  0  0
    0.8541    6.1603    0.3103 H   0  0  0  0  0  0  0  0  0  0  0  0
    0.6302    5.5883    1.9807 H   0  0  0  0  0  0  0  0  0  0  0  0
    1.5958    4.6324    0.8315 H   0  0  0  0  0  0  0  0  0  0  0  0
   -3.9521    4.1010   -2.8332 C   0  0  0  0  0  0  0  0  0  0  0  0
   -4.6439    3.1500   -2.4854 O   0  0  0  0  0  0  0  0  0  0  0  0
   -4.1954    4.8937   -4.0873 C   0  0  0  0  0  0  0  0  0  0  0  0
   -4.3729    5.9372   -3.8397 H   0  0  0  0  0  0  0  0  0  0  0  0
   -3.3271    4.8359   -4.7393 H   0  0  0  0  0  0  0  0  0  0  0  0
   -5.0624    4.4911   -4.6026 H   0  0  0  0  0  0  0  0  0  0  0  0
 12 14  1  0  0  0  0
 14 15  4  0  0  0  0
 15 16  1  0  0  0  0
  4 17  1  0  0  0  0
  8 17  1  0  0  0  0
 15 17  1  0  0  0  0
 16 18  4  0  0  0  0
 17 19  1  0  0  0  0
  6 20  1  0  0  0  0
 19 20  4  0  0  0  0
  3 21  1  0  0  0  0
 20 21  4  0  0  0  0
 21 22  4  0  0  0  0
  7 23  1  0  0  0  0
 22 23  4  0  0  0  0
 10 24  1  0  0  0  0
 19 24  4  0  0  0  0
 23 24  4  0  0  0  0
 22 25  1  0  0  0  0
  1 26  1  0  0  0  0
  5 26  1  0  0  0  0
 25 26  1  0  0  0  0
 26 27  1  0  0  0  0
  2 28  1  0  0  0  0
 27 28  4  0  0  0  0
 13 29  1  0  0  0  0
 28 29  4  0  0  0  0
  9 30  1  0  0  0  0
 29 30  4  0  0  0  0
 11 31  1  0  0  0  0
 30 31  4  0  0  0  0
 27 32  4  0  0  0  0
 31 32  4  0  0  0  0
 32 33  1  0  0  0  0
 33 34  4  0  0  0  0
 33 35  4  0  0  0  0
 34 35  1  0  0  0  0
 16 37  4  0  0  0  0
 36 37  1  0  0  0  0
 37 38  1  0  0  0  0
 36 39  1  0  0  0  0
 36 40  1  0  0  0  0
 36 41  1  0  0  0  0
 14 42  1  0  0  0  0
 42 43  2  0  0  0  0
 42 44  1  0  0  0  0
 44 45  1  0  0  0  0
 44 46  1  0  0  0  0
 44 47  1  0  0  0  0
M  END
