45
/home/esp/scriptDevelopment/drFrankenstein/10_C8X_CHARMM/01_termini_capping/C8X_capped.pdb
N         25.96700       33.48900       16.89000
C         26.97000       32.95700       17.83800
C         26.43300       32.81000       19.27100
O         26.52900       31.68200       19.77900
C         28.21300       33.84500       17.91100
S         29.49500       33.29300       19.06300
N         29.60500       37.19000       21.27900
C         30.81500       34.53800       18.88300
N         29.08800       39.50400       22.52700
C         30.48000       35.88900       19.46600
C         30.72400       37.06000       18.75600
C         30.39700       38.28200       19.30400
C         29.84300       38.31400       20.57900
C         29.92600       36.01600       20.72600
C         29.45500       39.58800       21.23500
C         29.46400       40.79200       20.54800
C         29.08400       41.94300       21.20700
C         28.70900       41.86900       22.52700
C         28.72700       40.63900       23.14400
H         26.37300       34.24700       16.35900
H         27.17700       32.06900       17.46600
H         27.93400       34.73800       18.16800
H         28.60100       33.89900       17.02300
H         31.00700       34.64200       17.93400
H         31.61700       34.19600       19.31800
H         31.11300       37.02500       17.89800
H         30.54700       39.08300       18.82200
H         29.76500       35.23700       21.22700
H         29.72800       40.82100       19.63900
H         29.08300       42.77200       20.75600
H         28.44500       42.64200       23.00000
H         28.47200       40.58600       24.05200
Pd        28.20400       37.45900       23.26900
C         25.30000       33.69700       21.50200
N         25.82400       33.76200       20.15400
H         25.78700       34.65900       19.65300
H         24.74500       32.75500       21.69100
H         26.15700       33.77700       22.22800
H         24.66100       34.57900       21.70800
C         24.64200       33.26500       16.50900
O         24.16700       32.35800       17.14900
C         23.80900       33.97300       15.47200
H         23.48600       33.25700       14.71600
H         22.93500       34.41600       15.94900
H         24.40300       34.75600       15.00100
