47
Coordinates from ORCA-job /home/esp/scriptDevelopment/drFrankenstein/11_PCY_CHARMM/04_torsion_scanning/torsion_NH1-CT1-CG321-CG2R61/scans_PCY_conformer_41/PCY_conformer_41_backwards/orca_scan_XTB
  H          -3.98788235067273     -3.04905507118129      1.72131184942516
  H          -3.72387334845513     -2.17555291574899      3.88220308166839
  H          -2.77585567954512     -1.92748328098779     -1.70373977948430
  H           1.03023393887321      1.41692511137469     -1.72862894310493
  H          -2.63926868946858     -3.11642386026270      0.55204841677632
  H          -1.15554894911246     -0.57302621181351     -2.96740273240545
  H          -2.70873314648351      0.93186895196836      1.45938885238194
  H           0.11246890622446      1.43910948982867     -3.24261157545187
  H          -0.05241224409413     -0.43147392485527      5.19790507207947
  H          -1.06592581053513      2.28244839431735      0.20378643654961
  H           0.87286594311932     -0.71626430333038      2.91401358768321
  H          -1.29453292722200      4.75625917045681     -2.29350253210294
  H          -2.35630298947996     -1.20321032016432      5.67630921588337
  N          -1.26750466880626      3.76002267260133     -2.53530002925525
  C          -0.12539738077197      3.18517000651548     -2.06941940038028
  C           0.74422650340274      4.14849236548429     -1.41336340759102
  C           0.08509167505820      1.71946184016230     -2.18813223216345
  O           0.38513269475115      5.34390213863115     -1.34633431404437
  C          -0.98545225796680      0.93730769563086     -1.46044918973853
  C          -1.48658726223797     -0.24143165715720     -1.99583866855753
  C          -2.40181836624347     -1.00134568515776     -1.29376666474659
  C          -2.83235489712455     -0.58242719809070     -0.04038971686623
  C          -2.36018530726041      0.61245503816933      0.48921526678440
  C          -1.44460937233039      1.36480359655180     -0.22129333857236
  O          -3.72769835568531     -1.34394576655568      0.69555075305451
  C          -3.14298228446698     -2.50131234136668      1.30343335436907
  C          -2.20396882288684     -2.06072646495863      2.39823856643440
  C          -2.70723430502540     -1.87710324293482      3.68076835682633
  C          -1.94038945318990     -1.31613230736518      4.68807754296117
  C          -0.64879482657376     -0.88433847515303      4.42304707144968
  C          -0.12844219762328     -1.03795764936860      3.15500920572115
  C          -0.89086530575444     -1.63682948349844      2.15143115924639
  N          -0.25192427668502     -1.79766633437306      0.88886629180167
  O           0.54925960929882     -0.93954889128387      0.53767880312419
  O          -0.50446305443746     -2.78794156339633      0.20919959505140
  C           2.84403844128665      4.60715230938564     -0.23734294409627
  N           1.91542647308624      3.72358012404868     -0.89859005841953
  H           2.16991636483344      2.75141996571989     -0.96372637570204
  H           2.40677196750177      5.60383934715108     -0.22688275707760
  H           3.01876762568714      4.27305954080046      0.78529270126705
  H           3.79180956834963      4.63421086716117     -0.77548526187124
  C          -2.24449957960115      3.24896812861173     -3.35144656857849
  O          -2.20820092051208      2.11305126284215     -3.80155869403716
  C          -3.35527108838281      4.22508010272611     -3.61325480007862
  H          -3.81157969975774      4.52297775953508     -2.67270857446273
  H          -2.96415106025226      5.11050138316080     -4.10855134896038
  H          -4.10228883282761      3.75709968616905     -4.24702527278970
